Circuit: * C:\Users\vyshu\eSim-Workspace\vishnu_comparator\vishnu_comparator.cir

